         452
  Built with Packmol                                             
  Al           6.532276        6.641739       -0.523254
  Cl           5.676018        8.307806       -1.697577
  Cl           8.549563        6.834613        0.360694
  Cl           5.371254        4.782782       -0.232870
  Al          -0.599576        9.467631       -0.255387
  Cl           1.397873       10.390250       -0.472098
  Cl          -1.395081        8.165155       -1.854993
  Cl          -1.801537        9.847481        1.560932
  Al          -1.768307       -0.736643        1.351233
  Cl          -1.649009       -1.881109       -0.536611
  Cl          -1.783411       -1.800020        3.289536
  Cl          -1.872502        1.471209        1.300792
  Al          -2.026972        5.258075        3.832932
  Cl          -2.192961        5.350933        1.630249
  Cl          -1.717295        7.111814        4.997307
  Cl          -2.170658        3.311479        4.871262
  Al          -1.524349        5.034375        9.375635
  Cl          -1.773622        7.028581       10.297045
  Cl          -2.688278        4.495358        7.574873
  Cl          -0.111146        3.579169       10.254978
  Al          -0.333035       -0.630834        3.886406
  Cl          -0.510303        0.376051        5.846699
  Cl          -0.198970       -2.835276        3.784057
  Cl          -0.289829        0.566715        2.028444
  Al           5.611275        8.219204        0.172830
  Cl           5.091543       10.263334       -0.490043
  Cl           7.190163        7.917237        1.690704
  Cl           4.552123        6.477023       -0.682164
  Al          -0.957710        1.907680       -1.614591
  Cl          -1.620395       -0.189542       -1.389863
  Cl          -2.435829        3.549481       -1.527032
  Cl           1.183099        2.363118       -1.926881
  Al          -0.160107       10.366100        6.133218
  Cl           0.636920       10.148936        8.183968
  Cl           1.134481       11.149460        4.521261
  Cl          -2.251729        9.799907        5.694405
  Al           6.901177        8.005372        5.092906
  Cl           9.003746        7.510048        5.563916
  Cl           5.367593        7.942923        6.684205
  Cl           6.332174        8.563149        3.030594
  Al           7.860092        8.346803        0.042916
  Cl           6.775890        9.844544       -1.169218
  Cl          10.036094        8.557127        0.372751
  Cl           6.768301        6.638723        0.925226
  Al           5.390083       -2.397228        5.040782
  Cl           3.298933       -2.525815        5.746861
  Cl           7.020496       -2.000434        6.480338
  Cl           5.850839       -2.665435        2.895139
  Al           4.835088        6.288615        7.155805
  Cl           4.425141        6.672396        5.017430
  Cl           6.286949        7.549581        8.246711
  Cl           3.793176        4.643865        8.203293
  Al          -0.394924        7.669608        0.393279
  Cl           1.432905        8.902256        0.559443
  Cl          -0.304489        5.498108        0.798772
  Cl          -2.313204        8.608448       -0.178378
  Al           9.298507        0.995236        6.465971
  Cl           8.705178        1.985663        8.351443
  Cl          10.520113       -0.846662        6.521693
  Cl           8.670235        1.846697        4.524760
  Al           9.542088        6.649493        8.863577
  Cl          10.750979        5.042133        7.945444
  Cl           7.449292        6.256338        9.458258
  Cl          10.425984        8.650021        9.187038
  Al           5.526626        1.174966        6.603392
  Cl           6.485740        2.716811        7.864662
  Cl           4.076780       -0.236745        7.493916
  Cl           6.017349        1.044817        4.451587
  Al           8.129070        3.061216       -1.276642
  Cl           8.503329        4.385868        0.453450
  Cl           9.506088        1.385114       -1.703861
  Cl           6.377789        3.412654       -2.579530
  Al           9.223419        0.116074        8.309274
  Cl           9.055689       -1.722083        7.092297
  Cl           8.112845        0.286372       10.213385
  Cl          10.501723        1.783951        7.622152
  Al           7.941667        3.324534        7.357296
  Cl           7.864955        4.501780        5.487484
  Cl           8.696040        4.251723        9.217203
  Cl           7.264008        1.220088        7.367217
  Al          -1.196754        1.323194        7.775194
  Cl          -1.573688        3.303594        8.682899
  Cl           0.469442        0.069440        8.509974
  Cl          -2.486013        0.596531        6.132700
  Al           5.156973        1.128602        0.802862
  Cl           7.271219        1.103716        0.156847
  Cl           4.575285        0.190525        2.718499
  Cl           3.624396        2.091566       -0.466753
  Al           3.926636        4.474745       10.068898
  Cl           4.483923        6.564855       10.525911
  Cl           5.474666        3.033364        9.425441
  Cl           1.821315        3.825996       10.255338
  C            7.250674        8.962641        6.632425
  H            7.087127        7.867354        6.709819
  H            6.434405        9.404241        6.021559
  C            8.586136        9.229200        6.006230
  H            7.219272        9.409581        7.648122
  N            9.717326        8.775507        6.592611
  O            8.652450        9.859166        4.961478
  H            9.674406        8.242968        7.473939
  H           10.637884        8.956496        6.165496
  C            3.716328       -0.325091       -1.314164
  H            4.217656        0.087876       -0.413876
  H            4.422016       -0.276366       -2.170956
  C            2.474068        0.461894       -1.604129
  H            3.450392       -1.386992       -1.129703
  N            1.482087        0.533080       -0.687518
  O            2.357686        1.041406       -2.673419
  H            1.568482        0.048634        0.218036
  H            0.626019        1.073145       -0.882682
  C            1.911381        0.390502        2.490594
  H            1.261019        0.897740        3.233649
  H            2.816678        0.008226        3.009019
  C            2.287631        1.356732        1.408249
  H            1.362330       -0.467783        2.049832
  N            1.330313        1.941038        0.652340
  O            3.464491        1.617218        1.208481
  H            0.334234        1.729438        0.811186
  H            1.584492        2.606125       -0.093088
  C            1.657866        8.716890        6.935101
  H            1.501777        9.772550        6.629145
  H            0.725480        8.339234        7.406793
  C            2.808067        8.635124        7.892695
  H            1.877268        8.104271        6.035688
  N            4.040121        9.046521        7.515776
  O            2.631201        8.194798        9.018568
  H            4.201945        9.419800        6.568857
  H            4.834021        8.992106        8.171042
  C            6.618591        1.589184        2.306295
  H            5.541684        1.716381        2.543961
  H            7.196291        1.582246        3.255335
  C            7.073046        2.706321        1.416290
  H            6.766737        0.617537        1.790217
  N            6.496450        2.892907        0.207161
  O            7.968350        3.451312        1.785312
  H            5.740367        2.271188       -0.115304
  H            6.805814        3.659886       -0.408183
  C            0.402345       -1.113164       -1.288940
  H            1.505858       -1.223291       -1.238709
  H            0.154336       -0.330840       -2.037887
  C           -0.128502       -0.741535        0.062625
  H           -0.046550       -2.074954       -1.614260
  N            0.065305       -1.561371        1.120726
  O           -0.738893        0.306756        0.208458
  H            0.578558       -2.448265        1.010409
  H           -0.298009       -1.309806        2.052032
  C           -1.710360        7.594001        2.483930
  H           -2.339809        8.024216        1.677022
  H           -2.365748        7.051499        3.198507
  C           -0.962137        8.691706        3.178077
  H           -0.990473        6.874060        2.041405
  N           -0.105758        9.477144        2.485998
  O           -1.127030        8.877245        4.374382
  H            0.041854        9.330540        1.476593
  H            0.410910       10.233224        2.959293
  C            1.331761        2.454455        4.370900
  H            1.105668        3.415998        4.877564
  H            1.952627        1.830055        5.048477
  C            2.053473        2.720812        3.084501
  H            0.381885        1.919374        4.161607
  N            1.471138        3.465255        2.117051
  O            3.172729        2.263124        2.909727
  H            0.527470        3.856783        2.252612
  H            1.963782        3.650962        1.230808
  C            2.702372        2.199230        9.391893
  H            2.909100        2.156668       10.481776
  H            3.351132        2.976649        8.934518
  C            1.254782        2.515656        9.166082
  H            2.944922        1.216892        8.935206
  N            0.293923        1.692498        9.644028
  O            0.942094        3.521780        8.547454
  H            0.545036        0.840875       10.167344
  H           -0.702850        1.906188        9.491085
  C            9.497920        5.595806        4.387261
  H           10.292381        5.074830        3.812972
  H            9.600956        6.690655        4.228675
  C            9.623029        5.255946        5.841729
  H            8.504233        5.272072        4.012877
  N            9.527246        3.970970        6.252744
  O            9.812364        6.144089        6.659112
  H            9.367643        3.212990        5.572912
  H            9.612665        3.732655        7.252005
  C            4.598196        2.539845        4.848563
  H            4.106508        3.482192        4.528224
  H            4.164389        2.222251        5.820883
  C            6.075594        2.759972        4.972961
  H            4.401191        1.749898        4.093875
  N            6.799621        3.152175        3.900006
  O            6.627639        2.584157        6.048644
  H            6.345450        3.303758        2.987355
  H            7.815878        3.304744        3.980975
  C            8.898766        9.290339        2.113145
  H            8.909122        8.293537        1.624606
  H            9.568851        9.261897        2.998943
  C            7.498095        9.638005        2.517971
  H            9.280429       10.050833        1.400149
  N            6.520775        9.725605        1.587143
  O            7.238750        9.843048        3.694176
  H            6.727039        9.554895        0.591907
  H            5.556117        9.964421        1.861029
  C            1.834953       -1.245823        5.367096
  H            1.061945       -0.497447        5.093629
  H            2.391782       -0.877265        6.255110
  C            2.762649       -1.457508        4.208992
  H            1.339553       -2.204407        5.628008
  N            2.285251       -1.905629        3.025544
  O            3.955251       -1.224029        4.335273
  H            1.281339       -2.106121        2.906618
  H            2.919604       -2.052640        2.226422
  C            4.362776        5.985649        1.199843
  H            4.881535        6.701754        0.528668
  H            3.436351        6.462869        1.585147
  C            5.272358        5.604148        2.328450
  H            4.084711        5.079217        0.622399
  N            6.459207        5.006715        2.075995
  O            4.939582        5.834161        3.481321
  H            6.751074        4.807461        1.107857
  H            7.087886        4.742625        2.849062
  C            5.798906       -1.187454        0.884171
  H            5.941023       -0.188982        0.420221
  H            6.632365       -1.850863        0.568424
  C            4.478252       -1.755940        0.460697
  H            5.823123       -1.083849        1.989187
  N            3.330110       -1.101259        0.747811
  O            4.439444       -2.815449       -0.146504
  H            3.349810       -0.206813        1.259434
  H            2.419640       -1.488518        0.458525
  C           -1.106982        2.719430        3.231005
  H           -0.373253        2.356535        2.481111
  H           -0.690692        3.618946        3.733038
  C           -1.385189        1.635747        4.228435
  H           -2.048339        3.001453        2.714584
  N           -1.897606        0.451281        3.823787
  O           -1.147798        1.823863        5.412081
  H           -2.102090        0.280568        2.828186
  H           -2.090504       -0.296801        4.506265
  C            8.538330        5.601444       -1.177241
  H            7.664382        5.314983       -0.555513
  H            9.468762        5.349852       -0.624556
  C            8.481181        7.068187       -1.480610
  H            8.517851        5.023638       -2.124923
  N            7.426249        7.585705       -2.150360
  O            9.391913        7.798950       -1.121011
  H            6.651917        6.979589       -2.458925
  H            7.382772        8.593816       -2.361155
  C            7.580111        0.007304        5.141780
  H            7.547088        1.001785        5.634030
  H            8.020847        0.123808        4.128548
  C            6.194685       -0.558309        5.056271
  H            8.224743       -0.673534        5.736162
  N            5.477586       -0.779769        6.181435
  O            5.711628       -0.820238        3.965029
  H            5.874069       -0.562919        7.107695
  H            4.524440       -1.168613        6.127351
  C            2.451836       -0.786295        9.030140
  H            2.260085       -0.330036        8.036434
  H            2.047472       -0.113955        9.816847
  C            3.925108       -0.992276        9.213645
  H            1.928355       -1.763362        9.090888
  N            4.615383       -1.780930        8.358768
  O            4.504412       -0.445043       10.139768
  H            4.138012       -2.247930        7.573779
  H            5.628673       -1.925410        8.481164
  C            6.139494        0.920251        9.237824
  H            7.021911        1.593666        9.222172
  H            5.510845        1.174257       10.118019
  C            6.595761       -0.505908        9.305108
  H            5.543082        1.077738        8.314856
  N            7.375373       -1.019641        8.326561
  O            6.261587       -1.206888       10.248354
  H            7.663871       -0.438421        7.525855
  H            7.691478       -1.999902        8.368738
  C           -0.773503        3.266440        6.853446
  H           -1.818829        2.892695        6.852637
  H           -0.173059        2.648984        7.555357
  C           -0.754519        4.707679        7.264667
  H           -0.347965        3.164188        5.833229
  N           -1.426370        5.632335        6.541551
  O           -0.129175        5.048029        8.257576
  H           -1.957470        5.357658        5.702108
  H           -1.416073        6.624606        6.820664
  C            8.441929       -1.662392        3.395853
  H            7.342895       -1.560842        3.515032
  H            8.896035       -1.834493        4.395168
  C            8.997035       -0.420054        2.767292
  H            8.660087       -2.537310        2.748315
  N            8.575464       -0.027792        1.543495
  O            9.834011        0.240728        3.363611
  H            7.869948       -0.576709        1.030545
  H            8.954492        0.825894        1.107410
  C            0.119389        5.698051        3.327289
  H           -0.571561        5.147788        2.654838
  H           -0.456759        6.081753        4.196362
  C            0.761238        6.825340        2.576368
  H            0.901968        5.002315        3.695938
  N            1.511528        6.574477        1.479371
  O            0.605571        7.975690        2.957448
  H            1.650233        5.608468        1.148059
  H            1.954806        7.346645        0.959879
  C            3.177515        8.374844       -0.047504
  H            4.032991        8.780768       -0.626968
  H            2.231298        8.711507       -0.522681
  C            3.258484        8.852389        1.370956
  H            3.214227        7.265555       -0.070107
  N            4.334971        8.550419        2.132048
  O            2.347683        9.517330        1.841120
  H            5.109601        7.990283        1.746852
  H            4.394872        8.876731        3.108032
  C           -1.208348        3.758266        0.227203
  H           -1.984280        4.485467       -0.091389
  H           -1.047176        3.863101        1.321504
  C            0.062730        4.017019       -0.523825
  H           -1.563669        2.728166        0.015017
  N            0.084995        3.940603       -1.873986
  O            1.082862        4.298160        0.086954
  H           -0.768935        3.704345       -2.400450
  H            0.956894        4.117764       -2.394579
  C            6.311874        5.024949        8.438829
  H            5.741343        5.918648        8.767750
  H            6.761969        4.539204        9.330977
  C            7.374810        5.436463        7.465454
  H            5.618522        4.307299        7.952391
  N            7.039023        6.048293        6.306929
  O            8.549569        5.217948        7.720311
  H            6.051629        6.238077        6.080621
  H            7.766708        6.333022        5.634608
  C            0.556926        6.537425       -1.271243
  H            0.610435        5.812628       -2.110408
  H           -0.510740        6.723931       -1.026776
  C            1.242484        7.811707       -1.662203
  H            1.057244        6.102986       -0.380554
  N            2.552229        7.806010       -1.999553
  O            0.614803        8.859842       -1.675998
  H            3.092396        6.928321       -1.991761
  H            3.027755        8.679994       -2.269071
  C            2.916993        7.396242        3.716089
  H            2.158989        6.819641        4.286487
  H            3.758418        6.719789        3.453645
  C            3.400505        8.548557        4.543749
  H            2.458223        7.776532        2.779451
  N            2.532141        9.493284        4.971192
  O            4.584414        8.634212        4.833198
  H            1.531151        9.432091        4.733592
  H            2.860251       10.287469        5.540600
  C           -0.889222       -1.207557        8.814910
  H           -1.365398       -0.204853        8.830164
  H           -0.148743       -1.264867        9.641268
  C           -0.224326       -1.428973        7.489948
  H           -1.666298       -1.983730        8.976430
  N           -0.950199       -1.399986        6.349098
  O            0.978709       -1.636504        7.440998
  H           -1.965616       -1.225894        6.377372
  H           -0.497104       -1.551736        5.435703
  C            2.969260        4.710523       -1.476524
  H            2.808576        5.501795       -0.714643
  H            2.405612        3.802192       -1.173708
  C            4.433720        4.412719       -1.591862
  H            2.582005        5.061933       -2.455772
  N            5.301616        5.386004       -1.950672
  O            4.844594        3.285575       -1.360589
  H            4.967254        6.340633       -2.148322
  H            6.309583        5.185694       -2.031239
  C            2.304666        5.972741        9.117246
  H            1.320096        6.485417        9.130549
  H            2.691074        5.912573       10.157212
  C            3.255207        6.730922        8.240737
  H            2.175221        4.942861        8.723579
  N            2.973013        6.919891        6.931566
  O            4.289330        7.179953        8.711607
  H            2.103974        6.546012        6.522706
  H            3.623827        7.440677        6.325073
  C            6.579886        6.762427        3.689281
  H            5.976976        6.762405        2.757138
  H            6.087395        7.423496        4.434199
  C            7.968498        7.241176        3.390631
  H            6.620931        5.731127        4.098080
  N            8.744273        6.574771        2.505561
  O            8.400904        8.237880        3.949527
  H            8.390855        5.732782        2.027723
  H            9.699844        6.900431        2.297134
  C            8.126108       -0.549419       -1.333250
  H            8.547479       -0.266755       -2.320641
  H            8.315848       -1.630229       -1.159153
  C            6.655954       -0.258216       -1.311309
  H            8.633959        0.035557       -0.538095
  N            6.207411        1.003191       -1.503486
  O            5.859795       -1.164791       -1.118922
  H            6.869054        1.776343       -1.666716
  H            5.197240        1.208039       -1.489213
  C            2.899842        3.739018        6.621431
  H            2.606090        4.781037        6.866988
  H            2.334937        3.043517        7.278411
  C            4.376533        3.572830        6.817394
  H            2.637602        3.524812        5.564206
  N            5.247798        4.327965        6.110330
  O            4.794358        2.751412        7.619550
  H            4.907653        5.024171        5.430788
  H            6.264167        4.217041        6.241867
  C            9.551499        2.819006        0.290717
  H           10.231666        1.941994        0.265923
  H            9.810029        3.496502       -0.551080
  C            9.691016        3.527273        1.604311
  H            8.504369        2.473204        0.162967
  N            9.422769        2.879130        2.760695
  O           10.048682        4.695255        1.629858
  H            9.120297        1.893930        2.752191
  H            9.517371        3.362288        3.666356
  C            3.054727        4.745753        3.593187
  H            2.629482        5.507169        2.906307
  H            3.240542        5.218816        4.581188
  C            4.327332        4.202648        3.016864
  H            2.322713        3.921370        3.723299
  N            4.322146        3.584026        1.814138
  O            5.373630        4.319626        3.636812
  H            3.445999        3.479183        1.281638
  H            5.194980        3.209008        1.413970
  C            0.690899        5.169019        5.923069
  H           -0.139646        4.815357        5.276920
  H            0.837672        4.439985        6.748556
  C            0.362983        6.527024        6.466142
  H            1.623405        5.222609        5.323119
  N            0.145529        7.563771        5.625226
  O            0.291965        6.697509        7.673888
  H            0.202571        7.432574        4.604583
  H           -0.080262        8.499408        5.994298
  C           -0.069102        8.142196        9.557367
  H            0.896781        8.453048        9.106995
  H            0.121218        7.321186       10.281372
  C           -1.006005        7.691393        8.477727
  H           -0.512771        9.002606       10.100720
  N           -1.369855        8.542041        7.491177
  O           -1.442587        6.550333        8.489514
  H           -1.008351        9.506956        7.470313
  H           -2.013938        8.236296        6.746671
  C            8.085754        8.592862        9.070512
  H            8.551388        8.260753       10.021974
  H            8.699903        9.411516        8.637974
  C            6.685803        9.060467        9.331507
  H            8.067980        7.743279        8.356178
  N            5.771472        8.215156        9.859445
  O            6.369876       10.210435        9.065943
  H            6.025815        7.242842       10.087690
  H            4.807562        8.532447       10.040596
  C            1.457961        1.156893        6.918696
  H            0.997450        1.869023        6.202321
  H            1.306340        1.539064        7.950886
  C            2.918668        1.011774        6.615527
  H            0.958023        0.170096        6.825564
  N            3.322854        0.559005        5.406849
  O            3.747355        1.303955        7.464449
  H            2.633481        0.309310        4.682559
  H            4.326365        0.457631        5.194009
